<?xml version="1.0" encoding="UTF-8"?>

<!-- generated on 05/24/22 22:18:15 by Eclipse SUMO netedit Version 1.8.0
<configuration xmlns:xsi="http://www.w3.org/2001/XMLSchema-instance" xsi:noNamespaceSchemaLocation="http://sumo.dlr.de/xsd/netconvertConfiguration.xsd">

    <input>
        <sumo-net-file value="E:\simulations\DGN-Agent-for-1570790962-main\networks\user_highway\circless.net.xml"/>
    </input>

    <output>
        <output-file value="E:\simulations\DGN-Agent-for-1570790962-main\networks\user_highway\circless.net.xml"/>
    </output>

    <processing>
        <geometry.min-radius.fix.railways value="false"/>
        <geometry.max-grade.fix value="false"/>
        <offset.disable-normalization value="true"/>
        <lefthand value="false"/>
    </processing>

    <junctions>
        <no-turnarounds value="true"/>
        <junctions.corner-detail value="5"/>
        <junctions.limit-turn-speed value="5.5"/>
        <rectangular-lane-cut value="false"/>
    </junctions>

    <pedestrian>
        <walkingareas value="false"/>
    </pedestrian>

    <report>
        <aggregate-warnings value="5"/>
    </report>

</configuration>
-->

<net version="1.6" junctionCornerDetail="5" limitTurnSpeed="5.50" xmlns:xsi="http://www.w3.org/2001/XMLSchema-instance" xsi:noNamespaceSchemaLocation="http://sumo.dlr.de/xsd/net_file.xsd">

    <location netOffset="0.00,0.00" convBoundary="-637.00,-637.00,637.00,637.00" origBoundary="-10000000000.00,-10000000000.00,10000000000.00,10000000000.00" projParameter="!"/>

    <edge id=":node0_0" function="internal">
        <lane id=":node0_0_0" index="0" speed="28.00" length="2.22" shape="-0.64,628.72 -0.43,628.76 -0.28,628.77 -0.13,628.75 0.09,628.69"/>
        <lane id=":node0_0_1" index="1" speed="8.14" length="2.22" shape="-1.27,631.85 -0.62,631.97 -0.17,632.00 0.28,631.94 0.92,631.78"/>
        <lane id=":node0_0_2" index="2" speed="10.36" length="2.22" shape="-1.89,634.99 -0.81,635.19 -0.06,635.24 0.69,635.14 1.75,634.87"/>
    </edge>
    <edge id=":node1_0" function="internal">
        <lane id=":node1_0_0" index="0" speed="28.00" length="2.50" shape="310.97,544.93 311.21,544.87 311.37,544.80 311.50,544.70 311.68,544.53"/>
        <lane id=":node1_0_1" index="1" speed="7.65" length="2.50" shape="311.81,548.02 312.51,547.82 312.98,547.62 313.40,547.31 313.93,546.81"/>
        <lane id=":node1_0_2" index="2" speed="9.72" length="2.50" shape="312.64,551.11 313.82,550.77 314.60,550.44 315.29,549.93 316.18,549.08"/>
    </edge>
    <edge id=":node10_0" function="internal">
        <lane id=":node10_0_0" index="0" speed="28.00" length="2.48" shape="-628.62,0.10 -628.69,0.33 -628.72,0.50 -628.71,0.66 -628.66,0.90"/>
        <lane id=":node10_0_1" index="1" speed="7.68" length="2.48" shape="-631.66,-0.90 -631.87,-0.20 -631.96,0.30 -631.93,0.81 -631.80,1.53"/>
        <lane id=":node10_0_2" index="2" speed="9.76" length="2.48" shape="-634.70,-1.89 -635.06,-0.73 -635.20,0.11 -635.16,0.95 -634.94,2.15"/>
    </edge>
    <edge id=":node11_0" function="internal">
        <lane id=":node11_0_0" index="0" speed="28.00" length="1.90" shape="-581.03,240.56 -580.99,240.75 -580.95,240.87 -580.89,240.98 -580.79,241.14"/>
        <lane id=":node11_0_1" index="1" speed="9.15" length="1.90" shape="-584.17,241.19 -584.05,241.74 -583.93,242.11 -583.75,242.45 -583.45,242.92"/>
        <lane id=":node11_0_2" index="2" speed="11.69" length="1.90" shape="-587.30,241.81 -587.11,242.73 -586.92,243.34 -586.62,243.92 -586.11,244.70"/>
    </edge>
    <edge id=":node12_0" function="internal">
        <lane id=":node12_0_0" index="0" speed="28.00" length="1.89" shape="-444.81,444.37 -444.70,444.52 -444.62,444.62 -444.52,444.70 -444.37,444.81"/>
        <lane id=":node12_0_1" index="1" speed="9.19" length="1.89" shape="-447.47,446.15 -447.15,446.61 -446.91,446.91 -446.61,447.15 -446.15,447.47"/>
        <lane id=":node12_0_2" index="2" speed="11.75" length="1.89" shape="-450.13,447.93 -449.60,448.70 -449.19,449.19 -448.70,449.60 -447.93,450.13"/>
    </edge>
    <edge id=":node13_0" function="internal">
        <lane id=":node13_0_0" index="0" speed="28.00" length="1.90" shape="-241.14,580.79 -240.98,580.89 -240.87,580.95 -240.75,580.99 -240.56,581.03"/>
        <lane id=":node13_0_1" index="1" speed="9.15" length="1.90" shape="-242.92,583.45 -242.45,583.75 -242.11,583.93 -241.74,584.05 -241.19,584.17"/>
        <lane id=":node13_0_2" index="2" speed="11.69" length="1.90" shape="-244.70,586.11 -243.92,586.62 -243.34,586.92 -242.73,587.11 -241.81,587.30"/>
    </edge>
    <edge id=":node2_0" function="internal">
        <lane id=":node2_0_0" index="0" speed="28.00" length="2.57" shape="544.52,314.64 544.70,314.46 544.80,314.32 544.87,314.16 544.94,313.92"/>
        <lane id=":node2_0_1" index="1" speed="7.55" length="2.57" shape="546.77,316.92 547.30,316.38 547.62,315.95 547.83,315.47 548.04,314.74"/>
        <lane id=":node2_0_2" index="2" speed="9.59" length="2.57" shape="549.02,319.20 549.90,318.29 550.43,317.59 550.78,316.78 551.13,315.57"/>
    </edge>
    <edge id=":node3_0" function="internal">
        <lane id=":node3_0_0" index="0" speed="28.00" length="2.21" shape="628.69,0.09 628.75,-0.12 628.77,-0.27 628.76,-0.42 628.72,-0.63"/>
        <lane id=":node3_0_1" index="1" speed="8.16" length="2.21" shape="631.79,0.92 631.95,0.29 632.01,-0.16 631.97,-0.61 631.86,-1.25"/>
        <lane id=":node3_0_2" index="2" speed="10.40" length="2.21" shape="634.88,1.74 635.14,0.69 635.24,-0.06 635.19,-0.81 635.00,-1.88"/>
    </edge>
    <edge id=":node4_0" function="internal">
        <lane id=":node4_0_0" index="0" speed="28.00" length="1.90" shape="581.03,-240.56 580.99,-240.75 580.95,-240.87 580.89,-240.98 580.79,-241.14"/>
        <lane id=":node4_0_1" index="1" speed="9.15" length="1.90" shape="584.17,-241.19 584.05,-241.74 583.93,-242.11 583.75,-242.45 583.45,-242.92"/>
        <lane id=":node4_0_2" index="2" speed="11.69" length="1.90" shape="587.30,-241.81 587.11,-242.73 586.92,-243.34 586.62,-243.92 586.11,-244.70"/>
    </edge>
    <edge id=":node5_0" function="internal">
        <lane id=":node5_0_0" index="0" speed="28.00" length="1.89" shape="444.81,-444.37 444.70,-444.52 444.62,-444.62 444.52,-444.70 444.37,-444.81"/>
        <lane id=":node5_0_1" index="1" speed="9.19" length="1.89" shape="447.47,-446.15 447.15,-446.61 446.91,-446.91 446.61,-447.15 446.15,-447.47"/>
        <lane id=":node5_0_2" index="2" speed="11.75" length="1.89" shape="450.13,-447.93 449.60,-448.70 449.19,-449.19 448.70,-449.60 447.93,-450.13"/>
    </edge>
    <edge id=":node6_0" function="internal">
        <lane id=":node6_0_0" index="0" speed="28.00" length="1.90" shape="241.14,-580.79 240.98,-580.89 240.87,-580.95 240.75,-580.99 240.56,-581.03"/>
        <lane id=":node6_0_1" index="1" speed="9.15" length="1.90" shape="242.92,-583.45 242.45,-583.75 242.11,-583.93 241.74,-584.05 241.19,-584.17"/>
        <lane id=":node6_0_2" index="2" speed="11.69" length="1.90" shape="244.70,-586.11 243.92,-586.62 243.34,-586.92 242.73,-587.11 241.81,-587.30"/>
    </edge>
    <edge id=":node7_0" function="internal">
        <lane id=":node7_0_0" index="0" speed="28.00" length="2.63" shape="1.06,-628.63 0.81,-628.68 0.63,-628.69 0.45,-628.65 0.20,-628.57"/>
        <lane id=":node7_0_1" index="1" speed="7.48" length="2.63" shape="1.68,-631.77 0.92,-631.91 0.38,-631.93 -0.15,-631.83 -0.88,-631.58"/>
        <lane id=":node7_0_2" index="2" speed="9.50" length="2.63" shape="2.31,-634.91 1.04,-635.14 0.14,-635.18 -0.75,-635.00 -1.97,-634.59"/>
    </edge>
    <edge id=":node8_0" function="internal">
        <lane id=":node8_0_0" index="0" speed="28.00" length="1.99" shape="-313.89,-515.16 -314.08,-515.09 -314.20,-515.03 -314.31,-514.95 -314.45,-514.81"/>
        <lane id=":node8_0_1" index="1" speed="8.78" length="1.99" shape="-314.98,-518.17 -315.53,-517.96 -315.90,-517.78 -316.22,-517.53 -316.65,-517.14"/>
        <lane id=":node8_0_2" index="2" speed="11.20" length="1.99" shape="-316.07,-521.18 -316.99,-520.83 -317.59,-520.53 -318.14,-520.12 -318.86,-519.46"/>
    </edge>
    <edge id=":node9_0" function="internal">
        <lane id=":node9_0_0" index="0" speed="28.00" length="2.40" shape="-525.73,-314.37 -525.90,-314.20 -526.00,-314.08 -526.07,-313.93 -526.15,-313.71"/>
        <lane id=":node9_0_1" index="1" speed="7.79" length="2.40" shape="-527.93,-316.69 -528.44,-316.20 -528.75,-315.81 -528.96,-315.37 -529.19,-314.70"/>
        <lane id=":node9_0_2" index="2" speed="9.92" length="2.40" shape="-530.13,-319.01 -530.98,-318.19 -531.49,-317.55 -531.85,-316.81 -532.23,-315.69"/>
    </edge>

    <edge id="edge0" from="node0" to="node1" priority="-1" length="300.00">
        <lane id="edge0_0" index="0" speed="28.00" length="300.00" shape="0.09,628.69 310.97,544.93"/>
        <lane id="edge0_1" index="1" speed="28.00" length="300.00" shape="0.92,631.78 311.81,548.02"/>
        <lane id="edge0_2" index="2" speed="28.00" length="300.00" shape="1.75,634.87 312.64,551.11"/>
    </edge>
    <edge id="edge1" from="node1" to="node2" priority="-1" length="300.00">
        <lane id="edge1_0" index="0" speed="28.00" length="300.00" shape="311.68,544.53 544.52,314.64"/>
        <lane id="edge1_1" index="1" speed="28.00" length="300.00" shape="313.93,546.81 546.77,316.92"/>
        <lane id="edge1_2" index="2" speed="28.00" length="300.00" shape="316.18,549.08 549.02,319.20"/>
    </edge>
    <edge id="edge10" from="node10" to="node11" priority="-1" length="300.00">
        <lane id="edge10_0" index="0" speed="28.00" length="300.00" shape="-628.66,0.90 -581.03,240.56"/>
        <lane id="edge10_1" index="1" speed="28.00" length="300.00" shape="-631.80,1.53 -584.17,241.19"/>
        <lane id="edge10_2" index="2" speed="28.00" length="300.00" shape="-634.94,2.15 -587.30,241.81"/>
    </edge>
    <edge id="edge11" from="node11" to="node12" priority="-1" length="300.00">
        <lane id="edge11_0" index="0" speed="28.00" length="300.00" shape="-580.79,241.14 -444.81,444.37"/>
        <lane id="edge11_1" index="1" speed="28.00" length="300.00" shape="-583.45,242.92 -447.47,446.15"/>
        <lane id="edge11_2" index="2" speed="28.00" length="300.00" shape="-586.11,244.70 -450.13,447.93"/>
    </edge>
    <edge id="edge12" from="node12" to="node13" priority="-1" length="300.00">
        <lane id="edge12_0" index="0" speed="28.00" length="300.00" shape="-444.37,444.81 -241.14,580.79"/>
        <lane id="edge12_1" index="1" speed="28.00" length="300.00" shape="-446.15,447.47 -242.92,583.45"/>
        <lane id="edge12_2" index="2" speed="28.00" length="300.00" shape="-447.93,450.13 -244.70,586.11"/>
    </edge>
    <edge id="edge13" from="node13" to="node0" priority="-1" length="300.00">
        <lane id="edge13_0" index="0" speed="28.00" length="300.00" shape="-240.56,581.03 -0.64,628.72"/>
        <lane id="edge13_1" index="1" speed="28.00" length="300.00" shape="-241.19,584.17 -1.27,631.85"/>
        <lane id="edge13_2" index="2" speed="28.00" length="300.00" shape="-241.81,587.30 -1.89,634.99"/>
    </edge>
    <edge id="edge2" from="node2" to="node3" priority="-1" length="300.00">
        <lane id="edge2_0" index="0" speed="28.00" length="300.00" shape="544.94,313.92 628.69,0.09"/>
        <lane id="edge2_1" index="1" speed="28.00" length="300.00" shape="548.04,314.74 631.79,0.92"/>
        <lane id="edge2_2" index="2" speed="28.00" length="300.00" shape="551.13,315.57 634.88,1.74"/>
    </edge>
    <edge id="edge3" from="node3" to="node4" priority="-1" length="300.00">
        <lane id="edge3_0" index="0" speed="28.00" length="300.00" shape="628.72,-0.63 581.03,-240.56"/>
        <lane id="edge3_1" index="1" speed="28.00" length="300.00" shape="631.86,-1.25 584.17,-241.19"/>
        <lane id="edge3_2" index="2" speed="28.00" length="300.00" shape="635.00,-1.88 587.30,-241.81"/>
    </edge>
    <edge id="edge4" from="node4" to="node5" priority="-1" length="300.00">
        <lane id="edge4_0" index="0" speed="28.00" length="300.00" shape="580.79,-241.14 444.81,-444.37"/>
        <lane id="edge4_1" index="1" speed="28.00" length="300.00" shape="583.45,-242.92 447.47,-446.15"/>
        <lane id="edge4_2" index="2" speed="28.00" length="300.00" shape="586.11,-244.70 450.13,-447.93"/>
    </edge>
    <edge id="edge5" from="node5" to="node6" priority="-1" length="300.00">
        <lane id="edge5_0" index="0" speed="28.00" length="300.00" shape="444.37,-444.81 241.14,-580.79"/>
        <lane id="edge5_1" index="1" speed="28.00" length="300.00" shape="446.15,-447.47 242.92,-583.45"/>
        <lane id="edge5_2" index="2" speed="28.00" length="300.00" shape="447.93,-450.13 244.70,-586.11"/>
    </edge>
    <edge id="edge6" from="node6" to="node7" priority="-1" length="300.00">
        <lane id="edge6_0" index="0" speed="28.00" length="300.00" shape="240.56,-581.03 1.06,-628.63"/>
        <lane id="edge6_1" index="1" speed="28.00" length="300.00" shape="241.19,-584.17 1.68,-631.77"/>
        <lane id="edge6_2" index="2" speed="28.00" length="300.00" shape="241.81,-587.30 2.31,-634.91"/>
    </edge>
    <edge id="edge7" from="node7" to="node8" priority="-1" length="300.00">
        <lane id="edge7_0" index="0" speed="28.00" length="300.00" shape="0.20,-628.57 -313.89,-515.16"/>
        <lane id="edge7_1" index="1" speed="28.00" length="300.00" shape="-0.88,-631.58 -314.98,-518.17"/>
        <lane id="edge7_2" index="2" speed="28.00" length="300.00" shape="-1.97,-634.59 -316.07,-521.18"/>
    </edge>
    <edge id="edge8" from="node8" to="node9" priority="-1" length="300.00">
        <lane id="edge8_0" index="0" speed="28.00" length="300.00" shape="-314.45,-514.81 -525.73,-314.37"/>
        <lane id="edge8_1" index="1" speed="28.00" length="300.00" shape="-316.65,-517.14 -527.93,-316.69"/>
        <lane id="edge8_2" index="2" speed="28.00" length="300.00" shape="-318.86,-519.46 -530.13,-319.01"/>
    </edge>
    <edge id="edge9" from="node9" to="node10" priority="-1" length="300.00">
        <lane id="edge9_0" index="0" speed="28.00" length="300.00" shape="-526.15,-313.71 -628.62,0.10"/>
        <lane id="edge9_1" index="1" speed="28.00" length="300.00" shape="-529.19,-314.70 -631.66,-0.90"/>
        <lane id="edge9_2" index="2" speed="28.00" length="300.00" shape="-532.23,-315.69 -634.70,-1.89"/>
    </edge>

    <junction id="node0" type="priority" x="0.00" y="637.00" incLanes="edge13_0 edge13_1 edge13_2" intLanes=":node0_0_0 :node0_0_1 :node0_0_2" shape="2.17,636.42 -0.33,627.15 -2.20,636.56 -0.59,636.84 -0.00,636.86 0.57,636.80 1.26,636.65">
        <request index="0" response="000" foes="000" cont="0"/>
        <request index="1" response="000" foes="000" cont="0"/>
        <request index="2" response="000" foes="000" cont="0"/>
    </junction>
    <junction id="node1" type="priority" x="315.50" y="552.00" incLanes="edge0_0 edge0_1 edge0_2" intLanes=":node1_0_0 :node1_0_1 :node1_0_2" shape="317.30,550.22 310.56,543.39 313.05,552.66 314.82,552.13 315.41,551.85 315.95,551.48 316.55,550.95">
        <request index="0" response="000" foes="000" cont="0"/>
        <request index="1" response="000" foes="000" cont="0"/>
        <request index="2" response="000" foes="000" cont="0"/>
    </junction>
    <junction id="node10" type="priority" x="-637.00" y="0.00" incLanes="edge9_0 edge9_1 edge9_2" intLanes=":node10_0_0 :node10_0_1 :node10_0_2" shape="-636.51,2.46 -627.09,0.59 -636.22,-2.39 -636.74,-0.63 -636.83,0.01 -636.81,0.66 -636.71,1.44">
        <request index="0" response="000" foes="000" cont="0"/>
        <request index="1" response="000" foes="000" cont="0"/>
        <request index="2" response="000" foes="000" cont="0"/>
    </junction>
    <junction id="node11" type="priority" x="-588.50" y="244.00" incLanes="edge10_0 edge10_1 edge10_2" intLanes=":node11_0_0 :node11_0_1 :node11_0_2" shape="-587.44,245.59 -579.46,240.25 -588.87,242.12 -588.57,243.49 -588.41,243.96 -588.19,244.41 -587.88,244.92">
        <request index="0" response="000" foes="000" cont="0"/>
        <request index="1" response="000" foes="000" cont="0"/>
        <request index="2" response="000" foes="000" cont="0"/>
    </junction>
    <junction id="node12" type="priority" x="-450.40" y="450.40" incLanes="edge11_0 edge11_1 edge11_2" intLanes=":node12_0_0 :node12_0_1 :node12_0_2" shape="-448.82,451.46 -443.48,443.48 -451.46,448.82 -450.66,449.96 -450.33,450.33 -449.96,450.66 -449.48,451.01">
        <request index="0" response="000" foes="000" cont="0"/>
        <request index="1" response="000" foes="000" cont="0"/>
        <request index="2" response="000" foes="000" cont="0"/>
    </junction>
    <junction id="node13" type="priority" x="-244.00" y="588.50" incLanes="edge12_0 edge12_1 edge12_2" intLanes=":node13_0_0 :node13_0_1 :node13_0_2" shape="-242.12,588.87 -240.25,579.46 -245.59,587.44 -244.41,588.19 -243.96,588.41 -243.49,588.57 -242.91,588.71">
        <request index="0" response="000" foes="000" cont="0"/>
        <request index="1" response="000" foes="000" cont="0"/>
        <request index="2" response="000" foes="000" cont="0"/>
    </junction>
    <junction id="node2" type="priority" x="552.00" y="318.50" incLanes="edge1_0 edge1_1 edge1_2" intLanes=":node2_0_0 :node2_0_1 :node2_0_2" shape="552.67,315.98 543.40,313.50 550.14,320.33 551.45,318.96 551.84,318.40 552.13,317.80 552.38,317.02">
        <request index="0" response="000" foes="000" cont="0"/>
        <request index="1" response="000" foes="000" cont="0"/>
        <request index="2" response="000" foes="000" cont="0"/>
    </junction>
    <junction id="node3" type="priority" x="637.00" y="0.00" incLanes="edge2_0 edge2_1 edge2_2" intLanes=":node3_0_0 :node3_0_1 :node3_0_2" shape="636.56,-2.19 627.15,-0.32 636.42,2.16 636.80,0.57 636.86,-0.00 636.84,-0.58 636.74,-1.27">
        <request index="0" response="000" foes="000" cont="0"/>
        <request index="1" response="000" foes="000" cont="0"/>
        <request index="2" response="000" foes="000" cont="0"/>
    </junction>
    <junction id="node4" type="priority" x="588.50" y="-244.00" incLanes="edge3_0 edge3_1 edge3_2" intLanes=":node4_0_0 :node4_0_1 :node4_0_2" shape="579.46,-240.25 588.87,-242.12 588.57,-243.49 588.41,-243.96 588.19,-244.41 587.88,-244.92 587.44,-245.59">
        <request index="0" response="000" foes="000" cont="0"/>
        <request index="1" response="000" foes="000" cont="0"/>
        <request index="2" response="000" foes="000" cont="0"/>
    </junction>
    <junction id="node5" type="priority" x="450.40" y="-450.40" incLanes="edge4_0 edge4_1 edge4_2" intLanes=":node5_0_0 :node5_0_1 :node5_0_2" shape="443.48,-443.48 451.46,-448.82 450.66,-449.96 450.33,-450.33 449.96,-450.66 449.48,-451.01 448.82,-451.46">
        <request index="0" response="000" foes="000" cont="0"/>
        <request index="1" response="000" foes="000" cont="0"/>
        <request index="2" response="000" foes="000" cont="0"/>
    </junction>
    <junction id="node6" type="priority" x="244.00" y="-588.50" incLanes="edge5_0 edge5_1 edge5_2" intLanes=":node6_0_0 :node6_0_1 :node6_0_2" shape="240.25,-579.46 245.59,-587.44 244.41,-588.19 243.96,-588.41 243.49,-588.57 242.91,-588.71 242.12,-588.87">
        <request index="0" response="000" foes="000" cont="0"/>
        <request index="1" response="000" foes="000" cont="0"/>
        <request index="2" response="000" foes="000" cont="0"/>
    </junction>
    <junction id="node7" type="priority" x="0.00" y="-637.00" incLanes="edge6_0 edge6_1 edge6_2" intLanes=":node7_0_0 :node7_0_1 :node7_0_2" shape="0.75,-627.06 2.62,-636.48 0.71,-636.80 0.01,-636.80 -0.67,-636.69 -1.47,-636.46 -2.51,-636.09">
        <request index="0" response="000" foes="000" cont="0"/>
        <request index="1" response="000" foes="000" cont="0"/>
        <request index="2" response="000" foes="000" cont="0"/>
    </junction>
    <junction id="node8" type="priority" x="-318.50" y="-522.00" incLanes="edge7_0 edge7_1 edge7_2" intLanes=":node8_0_0 :node8_0_1 :node8_0_2" shape="-313.35,-513.65 -316.61,-522.68 -317.98,-522.15 -318.44,-521.91 -318.87,-521.61 -319.34,-521.19 -319.96,-520.62">
        <request index="0" response="000" foes="000" cont="0"/>
        <request index="1" response="000" foes="000" cont="0"/>
        <request index="2" response="000" foes="000" cont="0"/>
    </junction>
    <junction id="node9" type="priority" x="-533.00" y="-318.50" incLanes="edge8_0 edge8_1 edge8_2" intLanes=":node9_0_0 :node9_0_1 :node9_0_2" shape="-524.63,-313.21 -531.24,-320.17 -532.49,-318.92 -532.86,-318.41 -533.16,-317.86 -533.43,-317.15 -533.75,-316.19">
        <request index="0" response="000" foes="000" cont="0"/>
        <request index="1" response="000" foes="000" cont="0"/>
        <request index="2" response="000" foes="000" cont="0"/>
    </junction>

    <connection from="edge0" to="edge1" fromLane="0" toLane="0" via=":node1_0_0" dir="s" state="M"/>
    <connection from="edge0" to="edge1" fromLane="1" toLane="1" via=":node1_0_1" dir="s" state="M"/>
    <connection from="edge0" to="edge1" fromLane="2" toLane="2" via=":node1_0_2" dir="s" state="M"/>
    <connection from="edge1" to="edge2" fromLane="0" toLane="0" via=":node2_0_0" dir="s" state="M"/>
    <connection from="edge1" to="edge2" fromLane="1" toLane="1" via=":node2_0_1" dir="s" state="M"/>
    <connection from="edge1" to="edge2" fromLane="2" toLane="2" via=":node2_0_2" dir="s" state="M"/>
    <connection from="edge10" to="edge11" fromLane="0" toLane="0" via=":node11_0_0" dir="s" state="M"/>
    <connection from="edge10" to="edge11" fromLane="1" toLane="1" via=":node11_0_1" dir="s" state="M"/>
    <connection from="edge10" to="edge11" fromLane="2" toLane="2" via=":node11_0_2" dir="s" state="M"/>
    <connection from="edge11" to="edge12" fromLane="0" toLane="0" via=":node12_0_0" dir="s" state="M"/>
    <connection from="edge11" to="edge12" fromLane="1" toLane="1" via=":node12_0_1" dir="s" state="M"/>
    <connection from="edge11" to="edge12" fromLane="2" toLane="2" via=":node12_0_2" dir="s" state="M"/>
    <connection from="edge12" to="edge13" fromLane="0" toLane="0" via=":node13_0_0" dir="s" state="M"/>
    <connection from="edge12" to="edge13" fromLane="1" toLane="1" via=":node13_0_1" dir="s" state="M"/>
    <connection from="edge12" to="edge13" fromLane="2" toLane="2" via=":node13_0_2" dir="s" state="M"/>
    <connection from="edge13" to="edge0" fromLane="0" toLane="0" via=":node0_0_0" dir="s" state="M"/>
    <connection from="edge13" to="edge0" fromLane="1" toLane="1" via=":node0_0_1" dir="s" state="M"/>
    <connection from="edge13" to="edge0" fromLane="2" toLane="2" via=":node0_0_2" dir="s" state="M"/>
    <connection from="edge2" to="edge3" fromLane="0" toLane="0" via=":node3_0_0" dir="s" state="M"/>
    <connection from="edge2" to="edge3" fromLane="1" toLane="1" via=":node3_0_1" dir="s" state="M"/>
    <connection from="edge2" to="edge3" fromLane="2" toLane="2" via=":node3_0_2" dir="s" state="M"/>
    <connection from="edge3" to="edge4" fromLane="0" toLane="0" via=":node4_0_0" dir="s" state="M"/>
    <connection from="edge3" to="edge4" fromLane="1" toLane="1" via=":node4_0_1" dir="s" state="M"/>
    <connection from="edge3" to="edge4" fromLane="2" toLane="2" via=":node4_0_2" dir="s" state="M"/>
    <connection from="edge4" to="edge5" fromLane="0" toLane="0" via=":node5_0_0" dir="s" state="M"/>
    <connection from="edge4" to="edge5" fromLane="1" toLane="1" via=":node5_0_1" dir="s" state="M"/>
    <connection from="edge4" to="edge5" fromLane="2" toLane="2" via=":node5_0_2" dir="s" state="M"/>
    <connection from="edge5" to="edge6" fromLane="0" toLane="0" via=":node6_0_0" dir="s" state="M"/>
    <connection from="edge5" to="edge6" fromLane="1" toLane="1" via=":node6_0_1" dir="s" state="M"/>
    <connection from="edge5" to="edge6" fromLane="2" toLane="2" via=":node6_0_2" dir="s" state="M"/>
    <connection from="edge6" to="edge7" fromLane="0" toLane="0" via=":node7_0_0" dir="s" state="M"/>
    <connection from="edge6" to="edge7" fromLane="1" toLane="1" via=":node7_0_1" dir="s" state="M"/>
    <connection from="edge6" to="edge7" fromLane="2" toLane="2" via=":node7_0_2" dir="s" state="M"/>
    <connection from="edge7" to="edge8" fromLane="0" toLane="0" via=":node8_0_0" dir="s" state="M"/>
    <connection from="edge7" to="edge8" fromLane="1" toLane="1" via=":node8_0_1" dir="s" state="M"/>
    <connection from="edge7" to="edge8" fromLane="2" toLane="2" via=":node8_0_2" dir="s" state="M"/>
    <connection from="edge8" to="edge9" fromLane="0" toLane="0" via=":node9_0_0" dir="s" state="M"/>
    <connection from="edge8" to="edge9" fromLane="1" toLane="1" via=":node9_0_1" dir="s" state="M"/>
    <connection from="edge8" to="edge9" fromLane="2" toLane="2" via=":node9_0_2" dir="s" state="M"/>
    <connection from="edge9" to="edge10" fromLane="0" toLane="0" via=":node10_0_0" dir="s" state="M"/>
    <connection from="edge9" to="edge10" fromLane="1" toLane="1" via=":node10_0_1" dir="s" state="M"/>
    <connection from="edge9" to="edge10" fromLane="2" toLane="2" via=":node10_0_2" dir="s" state="M"/>

    <connection from=":node0_0" to="edge0" fromLane="0" toLane="0" dir="s" state="M"/>
    <connection from=":node0_0" to="edge0" fromLane="1" toLane="1" dir="s" state="M"/>
    <connection from=":node0_0" to="edge0" fromLane="2" toLane="2" dir="s" state="M"/>
    <connection from=":node1_0" to="edge1" fromLane="0" toLane="0" dir="s" state="M"/>
    <connection from=":node1_0" to="edge1" fromLane="1" toLane="1" dir="s" state="M"/>
    <connection from=":node1_0" to="edge1" fromLane="2" toLane="2" dir="s" state="M"/>
    <connection from=":node10_0" to="edge10" fromLane="0" toLane="0" dir="s" state="M"/>
    <connection from=":node10_0" to="edge10" fromLane="1" toLane="1" dir="s" state="M"/>
    <connection from=":node10_0" to="edge10" fromLane="2" toLane="2" dir="s" state="M"/>
    <connection from=":node11_0" to="edge11" fromLane="0" toLane="0" dir="s" state="M"/>
    <connection from=":node11_0" to="edge11" fromLane="1" toLane="1" dir="s" state="M"/>
    <connection from=":node11_0" to="edge11" fromLane="2" toLane="2" dir="s" state="M"/>
    <connection from=":node12_0" to="edge12" fromLane="0" toLane="0" dir="s" state="M"/>
    <connection from=":node12_0" to="edge12" fromLane="1" toLane="1" dir="s" state="M"/>
    <connection from=":node12_0" to="edge12" fromLane="2" toLane="2" dir="s" state="M"/>
    <connection from=":node13_0" to="edge13" fromLane="0" toLane="0" dir="s" state="M"/>
    <connection from=":node13_0" to="edge13" fromLane="1" toLane="1" dir="s" state="M"/>
    <connection from=":node13_0" to="edge13" fromLane="2" toLane="2" dir="s" state="M"/>
    <connection from=":node2_0" to="edge2" fromLane="0" toLane="0" dir="s" state="M"/>
    <connection from=":node2_0" to="edge2" fromLane="1" toLane="1" dir="s" state="M"/>
    <connection from=":node2_0" to="edge2" fromLane="2" toLane="2" dir="s" state="M"/>
    <connection from=":node3_0" to="edge3" fromLane="0" toLane="0" dir="s" state="M"/>
    <connection from=":node3_0" to="edge3" fromLane="1" toLane="1" dir="s" state="M"/>
    <connection from=":node3_0" to="edge3" fromLane="2" toLane="2" dir="s" state="M"/>
    <connection from=":node4_0" to="edge4" fromLane="0" toLane="0" dir="s" state="M"/>
    <connection from=":node4_0" to="edge4" fromLane="1" toLane="1" dir="s" state="M"/>
    <connection from=":node4_0" to="edge4" fromLane="2" toLane="2" dir="s" state="M"/>
    <connection from=":node5_0" to="edge5" fromLane="0" toLane="0" dir="s" state="M"/>
    <connection from=":node5_0" to="edge5" fromLane="1" toLane="1" dir="s" state="M"/>
    <connection from=":node5_0" to="edge5" fromLane="2" toLane="2" dir="s" state="M"/>
    <connection from=":node6_0" to="edge6" fromLane="0" toLane="0" dir="s" state="M"/>
    <connection from=":node6_0" to="edge6" fromLane="1" toLane="1" dir="s" state="M"/>
    <connection from=":node6_0" to="edge6" fromLane="2" toLane="2" dir="s" state="M"/>
    <connection from=":node7_0" to="edge7" fromLane="0" toLane="0" dir="s" state="M"/>
    <connection from=":node7_0" to="edge7" fromLane="1" toLane="1" dir="s" state="M"/>
    <connection from=":node7_0" to="edge7" fromLane="2" toLane="2" dir="s" state="M"/>
    <connection from=":node8_0" to="edge8" fromLane="0" toLane="0" dir="s" state="M"/>
    <connection from=":node8_0" to="edge8" fromLane="1" toLane="1" dir="s" state="M"/>
    <connection from=":node8_0" to="edge8" fromLane="2" toLane="2" dir="s" state="M"/>
    <connection from=":node9_0" to="edge9" fromLane="0" toLane="0" dir="s" state="M"/>
    <connection from=":node9_0" to="edge9" fromLane="1" toLane="1" dir="s" state="M"/>
    <connection from=":node9_0" to="edge9" fromLane="2" toLane="2" dir="s" state="M"/>

</net>
